11
	Energy:      25.1586642
C         -9.23360       -1.46516        0.23941
C        -10.64097       -1.96925        0.14952
C        -11.54231       -0.93007        0.18773
C         -9.51232        0.00339        0.33190
C        -10.86508        0.25358        0.29716
H        -10.92213       -3.01061        0.06542
H        -12.61714       -1.04260        0.13824
H         -8.65256       -1.71322       -0.67330
H        -11.31284        1.23704        0.34900
H         -8.75703        0.77354        0.41528
H         -8.72310       -1.84147        1.15043
