6
	Energy:       3.7989668
C         -0.70686       -0.03246       -0.01801
O          0.68998        0.00257        0.03596
H          0.94903        0.93118       -0.19905
H         -1.13928        0.65739        0.73868
H         -1.04953       -1.06179        0.21404
H         -1.06072        0.22805       -1.03915
